sim: ** simulation statistics **
sim_num_insn                   9565 # total number of instructions executed
sim_num_refs                   4586 # total number of loads and stores executed
sim_elapsed_time                  1 # total simulation time in seconds
sim_inst_rate             9565.0000 # simulation speed (in insts/sec)
il1.accesses                   9565 # total number of accesses
il1.hits                       8490 # total number of hits
il1.misses                     1075 # total number of misses
il1.replacements               1043 # total number of replacements
il1.writebacks                    0 # total number of writebacks
il1.invalidations                 0 # total number of invalidations
il1.miss_rate                0.1124 # miss rate (i.e., misses/ref)
il1.repl_rate                0.1090 # replacement rate (i.e., repls/ref)
il1.wb_rate                  0.0000 # writeback rate (i.e., wrbks/ref)
il1.inv_rate                 0.0000 # invalidation rate (i.e., invs/ref)
dl1.accesses                   4767 # total number of accesses
dl1.hits                       4251 # total number of hits
dl1.misses                      516 # total number of misses
dl1.replacements                484 # total number of replacements
dl1.writebacks                  444 # total number of writebacks
dl1.invalidations                 0 # total number of invalidations
dl1.miss_rate                0.1082 # miss rate (i.e., misses/ref)
dl1.repl_rate                0.1015 # replacement rate (i.e., repls/ref)
dl1.wb_rate                  0.0931 # writeback rate (i.e., wrbks/ref)
dl1.inv_rate                 0.0000 # invalidation rate (i.e., invs/ref)
ul2.accesses                   2035 # total number of accesses
ul2.hits                       1498 # total number of hits
ul2.misses                      537 # total number of misses
ul2.replacements                  0 # total number of replacements
ul2.writebacks                    0 # total number of writebacks
ul2.invalidations                 0 # total number of invalidations
ul2.miss_rate                0.2639 # miss rate (i.e., misses/ref)
ul2.repl_rate                0.0000 # replacement rate (i.e., repls/ref)
ul2.wb_rate                  0.0000 # writeback rate (i.e., wrbks/ref)
ul2.inv_rate                 0.0000 # invalidation rate (i.e., invs/ref)
itlb.accesses                  9565 # total number of accesses
itlb.hits                      9552 # total number of hits
itlb.misses                      13 # total number of misses
itlb.replacements                 0 # total number of replacements
itlb.writebacks                   0 # total number of writebacks
itlb.invalidations                0 # total number of invalidations
itlb.miss_rate               0.0014 # miss rate (i.e., misses/ref)
itlb.repl_rate               0.0000 # replacement rate (i.e., repls/ref)
itlb.wb_rate                 0.0000 # writeback rate (i.e., wrbks/ref)
itlb.inv_rate                0.0000 # invalidation rate (i.e., invs/ref)
dtlb.accesses                  4767 # total number of accesses
dtlb.hits                      4759 # total number of hits
dtlb.misses                       8 # total number of misses
dtlb.replacements                 0 # total number of replacements
dtlb.writebacks                   0 # total number of writebacks
dtlb.invalidations                0 # total number of invalidations
dtlb.miss_rate               0.0017 # miss rate (i.e., misses/ref)
dtlb.repl_rate               0.0000 # replacement rate (i.e., repls/ref)
dtlb.wb_rate                 0.0000 # writeback rate (i.e., wrbks/ref)
dtlb.inv_rate                0.0000 # invalidation rate (i.e., invs/ref)
ld_text_base             0x00400000 # program text (code) segment base
ld_text_size                  77760 # program text (code) size in bytes
ld_data_base             0x10000000 # program initialized data segment base
ld_data_size                   8832 # program init'ed `.data' and uninit'ed `.bss' size in bytes
ld_stack_base            0x7fffc000 # program stack segment base (highest address in stack)
ld_stack_size                 16384 # program initial stack size
ld_prog_entry            0x00400140 # program entry point (initial PC)
ld_environ_base          0x7fff8000 # program environment base address address
ld_target_big_endian              0 # target executable endian-ness, non-zero if big endian
mem.page_count                   27 # total number of pages allocated
mem.page_mem                   108k # total size of memory pages allocated
mem.ptab_misses                  27 # total first level page table misses
mem.ptab_accesses            534392 # total page table accesses
mem.ptab_miss_rate           0.0001 # first level page table miss rate

